LAMMPS (20 Nov 2019)
#INIT
units metal
dimension 3
atom_style charge #atomic
boundary p p p
neighbor 2.0 bin
neigh_modify delay 1 #check yes one 1000 page 2000

#SYS DEF
region box block 0 25 0 25 0 25
create_box 2 box
Created orthogonal box = (0 0 0) to (25 25 25)

create_atoms 1 random 200 123 box
Created 200 atoms
create_atoms 2 random 300 234 box
Created 300 atoms

mass 1 26.9815
mass 2 15.9994
set atom 1 charge 1.4175
  1 settings made for charge
set atom 2 charge -0.9450
  1 settings made for charge

#potential config
pair_style born/coul/long 10.0
pair_coeff 1 1 0.00294848 0.068 1.5704 0.14561856 1
pair_coeff 1 2 0.00745792 0.172 2.6067 0.35836056 1
pair_coeff 2 2 0.01196736 0.276 3.643 	 0.88190881 1

kspace_style pppm 1.0e-4

#SIMULATION
dump dmp all atom 5000 article_dump.lammpstrj

#RUN
#minimize energy so there is no overlap
timestep 0.0005
minimize 1.0e-4 1.0e-6 10000 100000
PPPM initialization ...
  G vector (1/distance) = 0.154195
  grid = 4 4 4
  stencil order = 5
  estimated absolute RMS force accuracy = 0.00124323
  estimated relative force accuracy = 8.63378e-05
  3d grid and FFT values/proc = 729 64
  update every 1 steps, delay 0 steps, check yes
Step Temp E_pair E_mol TotEng Press
0            0     18605477            0     18605477 5.0990897e+09
Loop time of 0.421837 on 1 procs for 119 steps with 500 atoms

Minimization stats:
  Stopping criterion = energy tolerance
  Energy initial, next-to-last, final =
  Force two-norm initial, final = 1.7073e+09 0.371193
  Force max component initial, final = 1.01993e+09 0.0644745
  Final line search alpha, max atom move = 0.0395001 0.00254675
  Iterations, force evaluations = 119 273

#heating
timestep 0.001
velocity all create 5000 87287

fix 1 all nvt temp 5000 5000 0.1
fix 2 all deform 1 x final 0 15.70866 y final 0 14.29263 z final 0 18.1387987 units box
thermo 50
thermo_style custom step cpu temp press ke pe etotal vol
thermo_modify lost ignore
dump 1 all atom 1000 web_dump.lammpstrj
run 500000
PPPM initialization ...
  G vector (1/distance) = 0.154195
  grid = 4 4 4
  stencil order = 5
  estimated absolute RMS force accuracy = 0.00124323
  estimated relative force accuracy = 8.63378e-05
  3d grid and FFT values/proc = 729 64
Step CPU Temp Press KinEng PotEng TotEng Volume
119            0         5000     26704.76    322.50406   -6.0779787    316.42608        15625
Averages over the last 5001 of 10002 rows, steps 250150 to 500119:
Temp Press KinEng PotEng TotEng Volume
4999.68 731042 322.484 668.922 991.406 6165.81
Loop time of 1157.94 on 1 procs for 500000 steps with 500 atoms

unfix 2
unfix 1
fix 1 all nvt temp 5000 3000 0.1
run 500000
PPPM initialization ...
  G vector (1/distance) = 0.214214
  grid = 5 5 5
  stencil order = 5
  estimated absolute RMS force accuracy = 0.000265519
  estimated relative force accuracy = 1.84393e-05
  3d grid and FFT values/proc = 1000 125
Step CPU Temp Press KinEng PotEng TotEng Volume
500119            0     4773.156    1981353.6    307.87244    1527.7419    1835.6144     4072.488
Averages over the last 5001 of 10002 rows, steps 750150 to 1000119:
Temp Press KinEng PotEng TotEng Volume
3500.66 1.86461e+06 225.795 1436.81 1662.6 4072.49
Loop time of 2016.24 on 1 procs for 500000 steps with 500 atoms

unfix 1
fix 1 all nvt temp 3000 3000 0.1
fix 2 all deform 1 x final 0 14.280600 y final 0 12.993300 z final 0 16.489817 units box
run 500000
PPPM initialization ...
  G vector (1/distance) = 0.214214
  grid = 5 5 5
  stencil order = 5
  estimated absolute RMS force accuracy = 0.000265519
  estimated relative force accuracy = 1.84393e-05
  3d grid and FFT values/proc = 1000 125
Step CPU Temp Press KinEng PotEng TotEng Volume
1000119            0    3012.1049    1818182.6    194.28321    1398.5039    1592.7871     4072.488
Averages over the last 5001 of 10002 rows, steps 1250150 to 1500119:
Temp Press KinEng PotEng TotEng Volume
3000.89 3.80574e+06 193.56 2518.61 2712.17 3296.89
Loop time of 2229.99 on 1 procs for 500000 steps with 500 atoms

unfix 1
unfix 2
fix 1 all nvt temp 3000 3000 0.1
run 500000
PPPM initialization ...
  G vector (1/distance) = 0.222951
  grid = 5 5 5
  stencil order = 5
  estimated absolute RMS force accuracy = 0.000206263
  estimated relative force accuracy = 1.43242e-05
  3d grid and FFT values/proc = 1000 125
Step CPU Temp Press KinEng PotEng TotEng Volume
1500119            0    2900.9111    4846568.4    187.11112    3053.9362    3241.0473    3059.7205
Averages over the last 504 of 1008 rows, steps 1525300 to 1550450:
Temp Press KinEng PotEng TotEng Volume
2982.03 4.85869e+06 192.343 3066.9 3259.24 3059.72
