LAMMPS (20 Nov 2019)
#INIT: cooling rate 100K/ps

units metal
dimension 3
atom_style charge #atomic
boundary p p p
neighbor 2.0 bin
neigh_modify delay 1 #check yes one 1000 page 2000

#SYS DEF
region box block 0 25 0 25 0 25
create_box 2 box
Created orthogonal box = (0 0 0) to (25 25 25)

create_atoms 1 random 200 1 box
Created 200 atoms
create_atoms 2 random 300 2 box
Created 300 atoms

mass 1 26.9815
mass 2 15.9994
set atom 1 charge 1.4175
  1 settings made for charge
set atom 2 charge -0.9450
  1 settings made for charge

#potential config
pair_style born/coul/long 10.0
pair_coeff 1 1 0.00294848 0.068 1.5704 0.14561856 1
pair_coeff 1 2 0.00745792 0.172 2.6067 0.35836056 1
pair_coeff 2 2 0.01196736 0.276 3.643 	 0.88190881 1

kspace_style pppm 1.0e-4

#SIMULATION
dump dmp all atom 5000 a_al2o3_0_dump.lammpstrj

#RUN
#minimize energy so there is no overlap
timestep 0.0005
minimize 1.0e-4 1.0e-6 10000 100000
PPPM initialization ...
  G vector (1/distance) = 0.154195
  grid = 4 4 4
  stencil order = 5
  estimated absolute RMS force accuracy = 0.00124323
  estimated relative force accuracy = 8.63378e-05
  3d grid and FFT values/proc = 729 64
  update every 1 steps, delay 0 steps, check yes
Step Temp E_pair E_mol TotEng Press
0            0    88557.674            0    88557.674     20647081
Loop time of 0.132477 on 1 procs for 46 steps with 500 atoms

Minimization stats:
  Stopping criterion = energy tolerance
  Energy initial, next-to-last, final =
  Force two-norm initial, final = 2.80432e+06 14.2197
  Force max component initial, final = 1.84954e+06 7.3044
  Final line search alpha, max atom move = 0.000170395 0.00124463
  Iterations, force evaluations = 46 83

#heating
timestep 0.001 #picoseconds
velocity all create 5000 1

fix 1 all nvt temp 5000 5000 0.1
fix 2 all deform 1 x final 0 17.8022 y final 0 17.8022 z final 0 17.8022 units box
thermo 50
thermo_style custom step cpu temp press ke pe etotal vol
thermo_modify lost ignore
run 500000
PPPM initialization ...
  G vector (1/distance) = 0.154195
  grid = 4 4 4
  stencil order = 5
  estimated absolute RMS force accuracy = 0.00124323
  estimated relative force accuracy = 8.63378e-05
  3d grid and FFT values/proc = 729 64
Step CPU Temp Press KinEng PotEng TotEng Volume
46            0         5000    36449.618    322.50406    17.382148    339.88621        15625
Averages over the last 5001 of 10002 rows, steps 250050 to 500046:
Temp Press KinEng PotEng TotEng Volume
4990.03 344222 321.861 369.928 691.788 7594.87
Loop time of 1071.74 on 1 procs for 500000 steps with 500 atoms

unfix 2
unfix 1
fix 1 all nvt temp 5000 3000 0.1
run 20000 #100K/ps cooling
PPPM initialization ...
  G vector (1/distance) = 0.208223
  grid = 5 5 5
  stencil order = 5
  estimated absolute RMS force accuracy = 0.00029113
  estimated relative force accuracy = 2.02179e-05
  3d grid and FFT values/proc = 1000 125
Step CPU Temp Press KinEng PotEng TotEng Volume
500046            0    4759.0187    688723.27    306.96057    658.39625    965.35682    5641.8434
Averages over the last 201 of 402 rows, steps 510050 to 520046:
Temp Press KinEng PotEng TotEng Volume
3499.35 633592 225.711 604.077 829.788 5641.84
Loop time of 67.2215 on 1 procs for 20000 steps with 500 atoms

unfix 1
fix 1 all nvt temp 3000 3000 0.1
fix 2 all deform 1 x final 0 17.8022 y final 0 17.8022 z final 0 17.8022 units box
run 50000
PPPM initialization ...
  G vector (1/distance) = 0.208223
  grid = 5 5 5
  stencil order = 5
  estimated absolute RMS force accuracy = 0.00029113
  estimated relative force accuracy = 2.02179e-05
  3d grid and FFT values/proc = 1000 125
Step CPU Temp Press KinEng PotEng TotEng Volume
520046            0    2814.1097       608057    181.51236    582.88979    764.40215    5641.8434
Averages over the last 501 of 1002 rows, steps 545050 to 570046:
Temp Press KinEng PotEng TotEng Volume
3005.13 606104 193.833 576.96 770.793 5641.84
Loop time of 165.929 on 1 procs for 50000 steps with 500 atoms

unfix 1
unfix 2
fix 1 all nvt temp 3000 3000 0.1
run 50000
PPPM initialization ...
  G vector (1/distance) = 0.208223
  grid = 5 5 5
  stencil order = 5
  estimated absolute RMS force accuracy = 0.00029113
  estimated relative force accuracy = 2.02179e-05
  3d grid and FFT values/proc = 1000 125
Step CPU Temp Press KinEng PotEng TotEng Volume
570046            0    2925.5734    592910.03    188.70186    564.47843    753.18029    5641.8434
Averages over the last 501 of 1002 rows, steps 595050 to 620046:
Temp Press KinEng PotEng TotEng Volume
2994.71 605548 193.161 576.335 769.496 5641.84
Loop time of 165.411 on 1 procs for 50000 steps with 500 atoms

unfix 1
fix 1 all nvt temp 3000 300 0.1
run 27000
PPPM initialization ...
  G vector (1/distance) = 0.208223
  grid = 5 5 5
  stencil order = 5
  estimated absolute RMS force accuracy = 0.00029113
  estimated relative force accuracy = 2.02179e-05
  3d grid and FFT values/proc = 1000 125
Step CPU Temp Press KinEng PotEng TotEng Volume
620046            0    2705.1356    602238.64    174.48344    576.02005     750.5035    5641.8434
Averages over the last 271 of 542 rows, steps 633550 to 647046:
Temp Press KinEng PotEng TotEng Volume
981.646 469735 63.317 440.464 503.781 5641.84
Loop time of 86.6207 on 1 procs for 27000 steps with 500 atoms

unfix 1
fix 1 all nvt temp 300 300 0.1
thermo_style custom step temp density cpu
run 100000
PPPM initialization ...
  G vector (1/distance) = 0.208223
  grid = 5 5 5
  stencil order = 5
  estimated absolute RMS force accuracy = 0.00029113
  estimated relative force accuracy = 2.02179e-05
  3d grid and FFT values/proc = 1000 125
Step Temp Density CPU
647046    292.23462    3.0009791            0
Averages over the last 1001 of 2002 rows, steps 697050 to 747046:
Temp Density
298.564 3.00098
Loop time of 287.641 on 1 procs for 100000 steps with 500 atoms

#restart file
write_restart restart.a_al2o3_0_* #need MPIIO package
PPPM initialization ...
  G vector (1/distance) = 0.208223
  grid = 5 5 5
  stencil order = 5
  estimated absolute RMS force accuracy = 0.00029113
  estimated relative force accuracy = 2.02179e-05
  3d grid and FFT values/proc = 1000 125
